Circuit: * C:\Users\12345\Documents\Dev\dual_potentiostat\LTSpice\Back Current.asc

WARNING: Less than two connections to node v+.  This node is used by v3.
.step v2=0.6
.step v2=0.8
.step v2=1
.step v2=1.2
.step v2=1.4
.step v2=1.6

Date: Mon Jun  3 10:57:45 2024
Total elapsed time: 0.668 seconds.

tnom = 27
temp = 27
method = trap
totiter = 24018
traniter = 0
tranpoints = 0
accept = 0
rejected = 0
matrix size = 13
fillins = 2
solver = Alternate
Avg thread counts: 1.2/0.0/1.5/1.2
Matrix Compiler1: 694 bytes object code size  1.0/0.6/[0.6]
Matrix Compiler2: 995 bytes object code size  0.7/0.8/[0.5]

