Circuit: * C:\Users\12345\Documents\Dev\dual_potentiostat\LTSpice\Draft1.asc

.OP point found by inspection.

Date: Sat Jun  1 17:51:42 2024
Total elapsed time: 0.271 seconds.

tnom = 27
temp = 27
method = modified trap
totiter = 2123
traniter = 2123
tranpoints = 1048
accept = 1046
rejected = 2
matrix size = 6
fillins = 0
solver = Alternate
Avg thread counts: 3.8/6.6/6.6/3.8
Matrix Compiler1: 272 bytes object code size  0.4/0.4/[0.4]
Matrix Compiler2: 446 bytes object code size  0.4/0.6/[0.3]

